10
R0102 1 2 1
R0300 3 0 1
R0400 4 0 1
L0300 3 0 0.2
C0200 2 0 0.2
F0003 0 3 5 4 1
I0005 0 5 DC 1
.TRAN 3 5E-4 11
